analysis_results/bus_stats_without_deadband.csv
bus,Vm_mean,Vm_std,Vm_min,Vm_max,Va_mean,Va_std,Va_min,Va_max,Pd_mean,Pd_std,Pd_min,Pd_max,Qd_mean,Qd_std,Qd_min,Qd_max,Pg_mean,Pg_std,Pg_min,Pg_max,Qg_mean,Qg_std,Qg_min,Qg_max
0,1.0020959887313718,0.0005391974624597136,0.9975003771192207,1.0025000004992712,-4.547675977925304,35.500479193557524,-179.91112616701156,179.96477255006494,91.75573358876431,5.831815447355316,76.71694014968661,111.84276865475735,18.694742682091476,1.18954973512017,15.671645644967873,22.62278878888393,123.22890868589337,34.619516875895265,46.4010915986908,191.99970729215318,-1.7287897337466949,4.2971649728905925,-5.000003994169857,34.996983046235215
1,1.0021464399907767,0.0005115461698187361,0.9975000288239014,1.002500000487649,-4.59921027827078,35.50240594305549,-179.99610815092933,179.94686358581316,82.44188324952415,5.229069529084502,68.5283422385931,99.46762243536898,16.99532090976154,1.0791180683686252,14.245440984542398,20.67883597454672,118.52369155642491,35.482207638768365,46.40112676757236,191.9995875482511,-2.123947481588054,4.077930057880583,-5.00000390119129,34.99976940878811
2,0.9814153901183141,0.005659105627862316,0.9505512839773789,0.9970296822290088,-4.0336722502285705,35.45163725602796,-179.99014973351177,179.89768026579293,152.95639857848772,9.694997789509259,127.9788323759557,187.3660378988571,31.447296947307994,1.9979842044219158,26.21368140674554,37.849748237484455,0.0,0.0,0.0,0.0,0.0,0.0,0.0,0.0
3,0.9812704936558546,0.005825535455441101,0.9499999922622577,0.9956825838047574,-5.707155330684956,35.48789249630691,-179.97429216665736,179.9308913226518,62.87854263841746,3.9964416617574754,52.55028059543556,76.0641530940152,12.748394903684268,0.8056850148338808,10.717582571834132,15.47536213944685,0.0,0.0,0.0,0.0,0.0,0.0,0.0,0.0
4,0.9986745372513148,0.00498827832169284,0.9612436631296701,1.0153747866274812,-5.915253650738718,35.49212363149007,-179.95265436087107,179.98665545688527,60.3260275645819,3.8236646499746842,50.34331653821144,72.87649621773268,11.895187715692927,0.7576310753615411,9.902299441862553,14.381818115562089,0.0,0.0,0.0,0.0,0.0,0.0,0.0,0.0
5,1.0019140746361201,0.006512111873559828,0.9725509976126496,1.0266772124342132,-7.312247987117243,35.51374495906947,-179.99798726541545,179.99741102135113,115.58388136633803,7.316713825564804,96.42849847405942,139.8359080332593,23.79333699505704,1.5124177849112839,19.94384929116574,28.860809769020875,0.0,0.0,0.0,0.0,0.0,0.0,0.0,0.0
6,1.009142142477876,0.001565584863604449,0.9986735327284646,1.0140449644685248,-0.3130484942598876,35.551207059666154,-179.99572127876297,179.9663638186829,106.23563706953968,6.770289389102755,88.35154975425137,129.24099739899,21.243396494521075,1.3528563092122254,17.76013097484147,25.912153680621874,235.9387319096011,34.610017096866756,50.65214088823518,299.98474739530525,34.23437131235523,7.91193340606541,5.730213188852881,97.95880362921483
7,0.983523293185838,0.005242935047930602,0.9500011779907251,1.0009655081513669,-4.40813924254278,35.50253867941453,-179.98454621773215,179.8846622401387,145.30031189733043,9.210413763696877,121.15210723141854,177.48915869986902,29.736809050418113,1.8886281015613884,24.7301908670408,35.99734228019563,0.0,0.0,0.0,0.0,0.0,0.0,0.0,0.0
8,0.994319688961459,0.006253105373547389,0.9579427752078683,1.0151711892047877,-3.0517390175497185,35.44415236133016,-179.97714333650467,179.9814135742929,148.70627037206637,9.430443535256225,123.79732612080919,179.46660707300393,30.5946683241649,1.940870751893849,25.481150946238373,37.036149732295485,0.0,0.0,0.0,0.0,0.0,0.0,0.0,0.0
9,1.019298179882852,0.005880017244704493,0.9902780285711988,1.04515432990877,-4.509773538375628,35.46742682982848,-179.93898277145294,179.94784406552935,165.66744609532253,10.507913951534956,138.80707275252695,200.8322305097219,33.98838009067356,2.166704819667502,28.301073991892125,41.27579338474445,0.0,0.0,0.0,0.0,0.0,0.0,0.0,0.0
10,0.9906717895557036,0.00450891778954882,0.9612160526204431,1.012997429702048,1.5629038635764925,35.442511253106055,-179.95035833169823,179.99574760385565,0.0,0.0,0.0,0.0,0.0,0.0,0.0,0.0,0.0,0.0,0.0,0.0,0.0,0.0,0.0,0.0
11,0.9883687291937274,0.004982795556870494,0.9585349487770467,1.009306254023781,2.906022901132902,35.46086669632058,-179.95348578865514,179.9191835598176,0.0,0.0,0.0,0.0,0.0,0.0,0.0,0.0,0.0,0.0,0.0,0.0,0.0,0.0,0.0,0.0
12,1.007387175682599,0.002014269195526922,0.9958824997594494,1.0148609193922697,6.928776775407278,35.520145167346136,-179.97747006388454,179.9508303221869,225.10895678166526,14.304499729284375,189.41241921897043,272.4990531005497,45.88772081888655,2.90993833779324,38.48713206271077,56.07103145654157,527.5438296605014,72.12226741918502,207.00109837936833,591.0000059099472,75.67694590440607,12.085615173159901,30.83448364642809,144.7050014433036
13,1.0005361652906608,0.004449778276540914,0.9745471768891917,1.0206448883948764,2.1317975600428296,35.45513240054093,-179.99113474067858,179.89981955031362,164.86581693807756,10.46201267214948,137.2263101788373,199.36982281468187,33.14009036888996,2.107965925014232,27.631504762380672,40.12889770187934,0.0,0.0,0.0,0.0,74.03053459832178,8.471747561777345,0.0,75.00000000151182
14,0.9994969272267298,0.0008424197312145649,0.9984999995036847,1.0014999842352432,6.331233026107824,35.50297043441563,-179.99917636606392,179.99623148681655,269.4585194467364,17.069441595436228,226.8465549860456,331.48355039163465,54.373836110959225,3.4588812672439095,45.37595604071427,65.67232323788699,190.00321366965784,25.471586242818454,25.81266046267281,214.99994976696033,35.58427712173488,10.04850490245598,8.006123995684957,48.00000595578261
15,1.001737381569259,0.0016707239024516761,0.995732634358803,1.0089881406289845,6.32756691457263,35.497076939429824,-179.8506699122454,179.95970082927488,84.97123888657272,5.4084821844453685,70.6509157557797,104.54027634820307,16.995385629153876,1.0796502621323874,14.239586167222361,20.46595842600545,140.08434350331945,23.45030824951094,0.0,155.00000154999972,11.31145501781756,3.5459624028555794,-2.976281257969147,23.534731282394183
16,1.0087391577233067,0.001879698330670655,0.9977950670485465,1.017607708484843,8.108726935887292,35.53887372455183,-179.97521276070648,179.98920412099636,0.0,0.0,0.0,0.0,0.0,0.0,0.0,0.0,0.0,0.0,0.0,0.0,0.0,0.0,0.0,0.0
17,1.0116404517745228,0.001969585553733222,0.9969967168729079,1.0181194773137172,8.71624398106944,35.55207293344403,-179.93180199034725,179.97487230137483,282.95331546714533,17.987588531895412,237.97560787085303,345.29579802940003,57.78801310456455,3.6669678000307733,48.41481807466039,70.20574557969965,295.92805273383874,75.70976693344059,0.0,400.00000303322423,51.06566067728449,5.730484116025284,0.0,67.19777444874643
18,0.9985683102489805,0.0024967327895282798,0.98115293918152,1.0058008851808644,6.551905867852379,35.50105084585597,-179.97758611690833,179.99725295418682,153.8410560155893,9.771831308945968,128.36449456527347,186.43929340495924,31.437436926397258,2.001362126208479,26.265993766122076,38.1633481667734,0.0,0.0,0.0,0.0,0.0,0.0,0.0,0.0
19,1.004905415888218,0.002136258281965,0.9887142963827804,1.0110958666221763,8.309031366640657,35.54015921035868,-179.97973430756906,179.93036227198223,108.77195940911193,6.897823384451149,90.60683227171,131.49061887668748,22.089511683270043,1.4068737668230802,18.55685062394995,26.870762132421373,0.0,0.0,0.0,0.0,0.0,0.0,0.0,0.0
20,1.014061119469501,0.0013113163394711787,1.0044015140334892,1.0192804006207297,9.128758324749171,35.562767345822486,-179.98298666535993,179.9960470430081,0.0,0.0,0.0,0.0,0.0,0.0,0.0,0.0,228.8227930370618,59.84348919244879,0.0,399.9999901302976,46.294440755645375,5.009395531082757,0.0,61.19589517824675
21,1.0053402086989878,0.0004918118216428468,1.0013439348345763,1.0064999994156119,11.284613203903115,35.66674402093818,-179.97254098483876,179.99921616428185,0.0,0.0,0.0,0.0,0.0,0.0,0.0,0.0,112.62262747308296,47.36037373725853,49.999997950884925,299.92543209742877,-45.19499600087344,5.48835336006182,-59.976474704539385,1.8727819850859513
22,1.011759570511414,0.0013570895432656574,1.0035500825580264,1.0171228269400179,9.882892144587029,35.579673517916234,-179.98393058046634,179.96678842424706,0.0,0.0,0.0,0.0,0.0,0.0,0.0,0.0,474.51647212618883,86.45835615292462,129.56984000611527,659.9988855776971,21.544660595677716,7.0363112543104585,-6.698995449109679,70.36297868592857
23,0.9741141566400926,0.003135192340246544,0.955208111413842,1.0048903894681935,2.517086312066622,35.44952801427973,-179.99198499046815,179.9472848735861,0.0,0.0,0.0,0.0,0.0,0.0,0.0,0.0,0.0,0.0,0.0,0.0,0.0,0.0,0.0,0.0
